282450
  -OEChem-08122113503D

 23 23  0     0  0  0  0  0  0999 V2000
   -2.9474   -1.1865   -0.5187 O   0  0  0  0  0  0  0  0  0  0  0  0
   -2.9313    0.8541    0.4823 O   0  0  0  0  0  0  0  0  0  0  0  0
   -0.5634    2.1412   -0.1263 N   0  0  0  0  0  0  0  0  0  0  0  0
    1.3638    0.6584   -0.0440 C   0  0  0  0  0  0  0  0  0  0  0  0
    1.9004   -0.6267    0.0365 C   0  0  0  0  0  0  0  0  0  0  0  0
   -0.0196    0.8376   -0.0444 C   0  0  0  0  0  0  0  0  0  0  0  0
   -0.8661   -0.2682    0.0356 C   0  0  0  0  0  0  0  0  0  0  0  0
    1.0538   -1.7324    0.1166 C   0  0  0  0  0  0  0  0  0  0  0  0
   -0.3295   -1.5532    0.1162 C   0  0  0  0  0  0  0  0  0  0  0  0
    2.2778    1.8406   -0.1297 C   0  0  0  0  0  0  0  0  0  0  0  0
    3.3777   -0.8471    0.0387 C   0  0  0  0  0  0  0  0  0  0  0  0
   -2.3161   -0.1178    0.0371 C   0  0  0  0  0  0  0  0  0  0  0  0
    1.4551   -2.7402    0.1829 H   0  0  0  0  0  0  0  0  0  0  0  0
   -0.9608   -2.4345    0.1936 H   0  0  0  0  0  0  0  0  0  0  0  0
    2.0946    2.3895   -1.0602 H   0  0  0  0  0  0  0  0  0  0  0  0
    2.1056    2.5102    0.7205 H   0  0  0  0  0  0  0  0  0  0  0  0
    3.3431    1.6020   -0.1197 H   0  0  0  0  0  0  0  0  0  0  0  0
    3.8285   -0.4778   -0.8883 H   0  0  0  0  0  0  0  0  0  0  0  0
    3.8430   -0.3617    0.9029 H   0  0  0  0  0  0  0  0  0  0  0  0
    3.6241   -1.9131    0.1058 H   0  0  0  0  0  0  0  0  0  0  0  0
    0.0366    2.9518   -0.1861 H   0  0  0  0  0  0  0  0  0  0  0  0
   -1.5648    2.2781   -0.1398 H   0  0  0  0  0  0  0  0  0  0  0  0
   -3.9223   -1.0778   -0.5143 H   0  0  0  0  0  0  0  0  0  0  0  0
  1 12  1  0  0  0  0
  1 23  1  0  0  0  0
  2 12  2  0  0  0  0
  3  6  1  0  0  0  0
  3 21  1  0  0  0  0
  3 22  1  0  0  0  0
  4  5  2  0  0  0  0
  4  6  1  0  0  0  0
  4 10  1  0  0  0  0
  5  8  1  0  0  0  0
  5 11  1  0  0  0  0
  6  7  2  0  0  0  0
  7  9  1  0  0  0  0
  7 12  1  0  0  0  0
  8  9  2  0  0  0  0
  8 13  1  0  0  0  0
  9 14  1  0  0  0  0
 10 15  1  0  0  0  0
 10 16  1  0  0  0  0
 10 17  1  0  0  0  0
 11 18  1  0  0  0  0
 11 19  1  0  0  0  0
 11 20  1  0  0  0  0
M  END
> <PUBCHEM_COMPOUND_CID>
282450

> <PUBCHEM_CONFORMER_RMSD>
0.4

> <PUBCHEM_CONFORMER_DIVERSEORDER>
1
2
3

> <PUBCHEM_MMFF94_PARTIAL_CHARGES>
17
1 -0.65
10 0.14
11 0.14
12 0.63
13 0.15
14 0.15
2 -0.57
21 0.4
22 0.4
23 0.5
3 -0.9
4 -0.14
5 -0.14
6 0.1
7 0.09
8 -0.15
9 -0.15

> <PUBCHEM_EFFECTIVE_ROTOR_COUNT>
1

> <PUBCHEM_PHARMACOPHORE_FEATURES>
6
1 1 acceptor
1 2 acceptor
1 3 cation
1 3 donor
3 1 2 12 anion
6 4 5 6 7 8 9 rings

> <PUBCHEM_HEAVY_ATOM_COUNT>
12

> <PUBCHEM_ATOM_DEF_STEREO_COUNT>
0

> <PUBCHEM_ATOM_UDEF_STEREO_COUNT>
0

> <PUBCHEM_BOND_DEF_STEREO_COUNT>
0

> <PUBCHEM_BOND_UDEF_STEREO_COUNT>
0

> <PUBCHEM_ISOTOPIC_ATOM_COUNT>
0

> <PUBCHEM_COMPONENT_COUNT>
1

> <PUBCHEM_CACTVS_TAUTO_COUNT>
2

> <PUBCHEM_CONFORMER_ID>
00044F5200000001

> <PUBCHEM_MMFF94_ENERGY>
49.8209

> <PUBCHEM_FEATURE_SELFOVERLAP>
30.503

> <PUBCHEM_SHAPE_FINGERPRINT>
11206711 2 18262802852447010404
12032990 46 18409455799027464898
12423570 1 13575717450699058198
13380535 76 18193833975808515706
14128692 85 18342175557352806422
14325111 11 18411138077650666673
16945 1 18337668607608792478
193761 8 17329146871521718794
21040471 1 18193840568319583888
21501502 16 18412546552003617244
2334 1 18265898140655848026
23402655 69 18123171430473087669
23463225 33 18408885135523360762
23552423 10 18407760330637980343
241688 4 17761215414706305610
2748010 2 18193000532883192070
5084963 1 18273494555018259658
528886 8 18411133606616189427
63268167 104 18340206387930671313
7364860 26 18271526502635858800

> <PUBCHEM_SHAPE_MULTIPOLES>
230.23
4.32
2.03
0.63
0.64
0.48
0
-0.38
0.03
-0.48
0.04
0.05
-0.02
-0.25

> <PUBCHEM_SHAPE_SELFOVERLAP>
485.096

> <PUBCHEM_SHAPE_VOLUME>
131.1

> <PUBCHEM_COORDINATE_TYPE>
2
5
10

$$$$
